tests/data/power_flow/automatic-tap-regulator/auto-tap-changer-with-transformer-into-itself/asym_output_batch.json
{
  "version": "1.0",
  "type": "asym_output",
  "is_batch": true,
  "attributes": {},
  "data": [
    {
      "node": [
        {"id": 1, "energized": 1, "u_pu": [1.0499995575736913, 1.0499995575736911, 1.0499995575736909], "u": [6062.1752721415869, 6062.1752721415851, 6062.1752721415842], "u_angle": [-5.6717098074434516e-07, -2.0943956695641761, 2.0943945352222149], "p": [2309.0686544962264, 2309.068654496225, 2309.0686544962255], "q": [23090.607835119601, 23090.607835119597, 23090.607835119587]}
      ],
      "transformer": [
        {"id": 2, "energized": 0, "p_from": [0, 0, 0], "q_from": [0, 0, 0], "i_from": [0, 0, 0], "s_from": [0, 0, 0], "p_to": [0, 0, 0], "q_to": [0, 0, 0], "i_to": [0, 0, 0], "s_to": [0, 0, 0]}
      ],
      "shunt": [
        {"id": 3, "energized": 1, "p": [2309.0686544962264, 2309.068654496225, 2309.0686544962255], "q": [23090.607835119601, 23090.607835119597, 23090.60783511959], "i": [3.827961650290387, 3.827961650290387, 3.8279616502903862], "s": [23205.774459096679, 23205.774459096676, 23205.774459096669], "pf": [0.099504054844895287, 0.099504054844895246, 0.099504054844895301]}
      ],
      "source": [
        {"id": 4, "energized": 1, "p": [222808.88283548571, 222808.88283548559, 222808.88283548554], "q": [133340.51492561429, 133340.51492561429, 133340.5149256142], "i": [42.832865507903946, 42.832865507903939, 42.832865507903918], "s": [259660.3381169815, 259660.33811698144, 259660.33811698132], "pf": [0.85807822808543999, 0.85807822808543976, 0.85807822808543988]}
      ],
      "sym_load": [
        {"id": 5, "energized": 1, "p": [220499.81418098946, 220499.81418098934, 220499.81418098931], "q": [110249.90709049473, 110249.90709049467, 110249.90709049466], "i": [40.666308000080626, 40.666308000080619, 40.666308000080598], "s": [246526.28676738229, 246526.28676738217, 246526.28676738212], "pf": [0.89442719099991586, 0.89442719099991574, 0.89442719099991586]}
      ],
      "transformer_tap_regulator": [
        {"id": 7, "energized": 0}
      ]
    },
    {
      "node": [
        {"id": 1, "energized": 1, "u_pu": [1.0499995575736913, 1.0499995575736911, 1.0499995575736909], "u": [6062.1752721415869, 6062.1752721415851, 6062.1752721415842], "u_angle": [-5.6717098074434516e-07, -2.0943956695641761, 2.0943945352222149], "p": [2309.0686544962264, 2309.068654496225, 2309.0686544962255], "q": [23090.607835119601, 23090.607835119597, 23090.607835119587]}
      ],
      "transformer": [
        {"id": 2, "energized": 1, "p_from": [1154.5343272481132, 1154.5343272481125, 1154.5343272481127], "q_from": [11545.303917559801, 11545.303917559799, 11545.303917559795], "i_from": [1.9139808251451935, 1.9139808251451935, 1.9139808251451931], "s_from": [11602.88722954834, 11602.887229548338, 11602.887229548334], "p_to": [1154.5343272481132, 1154.5343272481125, 1154.5343272481127], "q_to": [11545.303917559801, 11545.303917559799, 11545.303917559795], "i_to": [1.9139808251451935, 1.9139808251451935, 1.9139808251451931], "s_to": [11602.88722954834, 11602.887229548338, 11602.887229548334]}
      ],
      "shunt": [
        {"id": 3, "energized": 0, "p": [0, 0, 0], "q": [0, 0, 0], "i": [0, 0, 0], "s": [0, 0, 0], "pf": [0, 0, 0]}
      ],
      "source": [
        {"id": 4, "energized": 1, "p": [222808.88283548571, 222808.88283548559, 222808.88283548554], "q": [133340.51492561429, 133340.51492561429, 133340.5149256142], "i": [42.832865507903946, 42.832865507903939, 42.832865507903918], "s": [259660.3381169815, 259660.33811698144, 259660.33811698132], "pf": [0.85807822808543999, 0.85807822808543976, 0.85807822808543988]}
      ],
      "sym_load": [
        {"id": 5, "energized": 1, "p": [220499.81418098946, 220499.81418098934, 220499.81418098931], "q": [110249.90709049473, 110249.90709049467, 110249.90709049466], "i": [40.666308000080626, 40.666308000080619, 40.666308000080598], "s": [246526.28676738229, 246526.28676738217, 246526.28676738212], "pf": [0.89442719099991586, 0.89442719099991574, 0.89442719099991586]}
      ],
      "transformer_tap_regulator": [
        {"id": 7, "energized": 1, "tap_pos": 1}
      ]
    }
  ]
}