tests/data/power_flow/automatic-tap-regulator/auto-tap-changer-with-transformer-into-itself/sym_output_batch.json
{
  "version": "1.0",
  "type": "sym_output",
  "is_batch": true,
  "attributes": {},
  "data": [
    {
      "node": [
        {"id": 1, "energized": 1, "u_pu": 1.0499995575736911, "u": 10499.995575736912, "u_angle": -5.6717098074380549e-07, "p": 6927.2059634886764, "q": 69271.823505358785}
      ],
      "transformer": [
        {"id": 2, "energized": 0, "p_from": 0, "q_from": 0, "i_from": 0, "s_from": 0, "p_to": 0, "q_to": 0, "i_to": 0, "s_to": 0}
      ],
      "shunt": [
        {"id": 3, "energized": 1, "p": 6927.2059634886764, "q": 69271.823505358785, "i": 3.8279616502903862, "s": 69617.323377290013, "pf": 0.099504054844895287}
      ],
      "source": [
        {"id": 4, "energized": 1, "p": 668426.64850645687, "q": 400021.54477684275, "i": 42.832865507903932, "s": 778981.0143509442, "pf": 0.85807822808543999}
      ],
      "sym_load": [
        {"id": 5, "energized": 1, "p": 661499.44254296809, "q": 330749.72127148404, "i": 40.666308000080619, "s": 739578.86030214664, "pf": 0.89442719099991574}
      ],
      "transformer_tap_regulator": [
        {"id": 7, "energized": 0}
      ]
    },
    {
      "node": [
        {"id": 1, "energized": 1, "u_pu": 1.0499995575736911, "u": 10499.995575736912, "u_angle": -5.6717098074380549e-07, "p": 6927.2059634886764, "q": 69271.823505358785}
      ],
      "transformer": [
        {"id": 2, "energized": 1, "p_from": 3463.6029817443382, "q_from": 34635.911752679393, "i_from": 1.9139808251451931, "s_from": 34808.661688645007, "p_to": 3463.6029817443382, "q_to": 34635.911752679393, "i_to": 1.9139808251451931, "s_to": 34808.661688645007}
      ],
      "shunt": [
        {"id": 3, "energized": 0, "p": 0, "q": 0, "i": 0, "s": 0, "pf": 0}
      ],
      "source": [
        {"id": 4, "energized": 1, "p": 668426.64850645687, "q": 400021.54477684275, "i": 42.832865507903932, "s": 778981.0143509442, "pf": 0.85807822808543999}
      ],
      "sym_load": [
        {"id": 5, "energized": 1, "p": 661499.44254296809, "q": 330749.72127148404, "i": 40.666308000080619, "s": 739578.86030214664, "pf": 0.89442719099991574}
      ],
      "transformer_tap_regulator": [
        {"id": 7, "energized": 1, "tap_pos": 1}
      ]
    }
  ]
}